/*--------------------------------*- C++ -*----------------------------------*\
| =========                 |                                                 |
| \\      /  F ield         | OpenFOAM: The Open Source CFD Toolbox           |
|  \\    /   O peration     | Version:  3.0.1                                 |
|   \\  /    A nd           | Web:      www.OpenFOAM.org                      |
|    \\/     M anipulation  |                                                 |
\*---------------------------------------------------------------------------*/
FoamFile
{
    version     2.0;
    format      ascii;
    class       volVectorField;
    location    "0";
    object      Ub;
}
// * * * * * * * * * * * * * * * * * * * * * * * * * * * * * * * * * * * * * //

dimensions      [0 1 -1 0 0 0 0];

internalField   uniform (0 0 0);

boundaryField
{
    movingWall
    {
        type            zeroGradient;
    }
    CPLReceiveMD
    {
        type            zeroGradient;
    }
    streamwiseIn
    {
        type            cyclic;
    }
    streamwiseOut
    {
        type            cyclic;
    }
    front
    {
        type            cyclic;
    }
    back
    {
        type            cyclic;
    }
    procBoundary17to8
    {
        type            processor;
        value           uniform (0 0 0);
    }
    procBoundary17to14
    {
        type            processor;
        value           uniform (0 0 0);
    }
    procBoundary17to15throughstreamwiseOut
    {
        type            processorCyclic;
        value           uniform (0 0 0);
    }
    procBoundary17to16
    {
        type            processor;
        value           uniform (0 0 0);
    }
    procBoundary17to26
    {
        type            processor;
        value           uniform (0 0 0);
    }
}


// ************************************************************************* //
