/*--------------------------------*- C++ -*----------------------------------*\
| =========                 |                                                 |
| \\      /  F ield         | OpenFOAM: The Open Source CFD Toolbox           |
|  \\    /   O peration     | Version:  3.0.1                                 |
|   \\  /    A nd           | Web:      www.OpenFOAM.org                      |
|    \\/     M anipulation  |                                                 |
\*---------------------------------------------------------------------------*/
FoamFile
{
    version     2.0;
    format      ascii;
    class       polyBoundaryMesh;
    location    "constant/polyMesh";
    object      boundary;
}
// * * * * * * * * * * * * * * * * * * * * * * * * * * * * * * * * * * * * * //

11
(
    movingWall
    {
        type            wall;
        inGroups        1(wall);
        nFaces          25;
        startFace       300;
    }
    CPLReceiveMD
    {
        type            patch;
        nFaces          0;
        startFace       325;
    }
    streamwiseIn
    {
        type            cyclic;
        inGroups        1(cyclic);
        nFaces          0;
        startFace       325;
        matchTolerance  0.0001;
        transform       unknown;
        neighbourPatch  streamwiseOut;
    }
    streamwiseOut
    {
        type            cyclic;
        inGroups        1(cyclic);
        nFaces          0;
        startFace       325;
        matchTolerance  0.0001;
        transform       unknown;
        neighbourPatch  streamwiseIn;
    }
    front
    {
        type            cyclic;
        inGroups        1(cyclic);
        nFaces          0;
        startFace       325;
        matchTolerance  0.0001;
        transform       unknown;
        neighbourPatch  back;
    }
    back
    {
        type            cyclic;
        inGroups        1(cyclic);
        nFaces          0;
        startFace       325;
        matchTolerance  0.0001;
        transform       unknown;
        neighbourPatch  front;
    }
    procBoundary25to7throughback
    {
        type            processorCyclic;
        inGroups        1(processorCyclic);
        nFaces          25;
        startFace       325;
        matchTolerance  0.0001;
        transform       unknown;
        myProcNo        25;
        neighbProcNo    7;
        referPatch      back;
    }
    procBoundary25to16
    {
        type            processor;
        inGroups        1(processor);
        nFaces          25;
        startFace       350;
        matchTolerance  0.0001;
        transform       unknown;
        myProcNo        25;
        neighbProcNo    16;
    }
    procBoundary25to22
    {
        type            processor;
        inGroups        1(processor);
        nFaces          25;
        startFace       375;
        matchTolerance  0.0001;
        transform       unknown;
        myProcNo        25;
        neighbProcNo    22;
    }
    procBoundary25to24
    {
        type            processor;
        inGroups        1(processor);
        nFaces          25;
        startFace       400;
        matchTolerance  0.0001;
        transform       unknown;
        myProcNo        25;
        neighbProcNo    24;
    }
    procBoundary25to26
    {
        type            processor;
        inGroups        1(processor);
        nFaces          25;
        startFace       425;
        matchTolerance  0.0001;
        transform       unknown;
        myProcNo        25;
        neighbProcNo    26;
    }
)

// ************************************************************************* //
